11
Mpro-x0305_0A
C      8.534000   -0.077000   27.436000
C      9.089000   -0.624000   26.139000
C     11.050000   -0.261000   24.629000
C     10.694000   -1.391000   23.904000
C     11.481000   -1.805000   22.848000
C     12.613000   -1.072000   22.540000
C     13.505000   -1.512000   21.387000
C     12.912000    0.050000   23.310000
N     10.225000    0.179000   25.728000
N     14.186000   -1.815000   20.530000
N     12.133000    0.427000   24.323000
