11
Mpro-x0946_0A
N      9.527000    5.107000   23.000000
C     12.610000    1.052000   23.150000
O     10.367000    5.164000   25.305000
C     11.370000    1.121000   23.791000
C     10.829000    2.395000   24.054000
C     11.503000    3.581000   23.688000
C     12.749000    3.448000   23.058000
C     13.308000    2.200000   22.790000
O     11.733000    6.115000   23.510000
S     10.843000    5.106000   23.978000
Br    13.409000   -0.700000   22.692000
