11
Mpro-x0107_0A
C     10.178000   -0.729000   22.570000
C      9.282000   -0.103000   21.503000
C      7.179000   -0.153000   20.108000
C      7.551000   -0.215000   18.771000
C      5.669000    0.913000   18.114000
C      5.217000    1.031000   19.422000
C      5.987000    0.482000   20.447000
C      5.547000    0.583000   21.905000
N      8.033000   -0.743000   21.127000
N      6.798000    0.308000   17.822000
O      9.609000    0.911000   20.991000
