13
Mpro-x0874_0A
C      9.558000    1.820000   22.267000
C      9.173000    1.161000   23.634000
C      7.848000    1.068000   23.785000
C      7.456000   -0.441000   23.371000
C      8.825000   -1.135000   23.035000
C      9.747000   -0.401000   23.715000
C     11.174000   -0.488000   23.119000
C     12.180000    0.434000   23.497000
C     13.435000    0.223000   22.875000
C     11.552000   -1.483000   22.196000
N     10.349000    3.059000   22.272000
O      9.225000    1.320000   21.213000
S     13.241000   -1.171000   21.834000
