18
Mpro-x0426_0A
C      1.590000    3.756000   25.236000
C      0.594000    4.464000   25.895000
C     -0.714000    4.000000   25.928000
C     -1.035000    2.812000   25.291000
C     -0.046000    2.102000   24.622000
C      1.269000    2.563000   24.594000
C      2.324000    1.749000   23.846000
C      4.469000    1.646000   22.465000
C      3.973000    1.580000   21.019000
C      4.972000    1.105000   19.960000
C      5.982000    0.179000   20.223000
C      6.826000   -0.187000   19.174000
C      5.738000    1.188000   17.705000
C      4.859000    1.610000   18.688000
F      2.874000    4.240000   25.229000
N      3.463000    2.402000   23.210000
N      6.689000    0.319000   17.956000
O      2.191000    0.570000   23.786000
