16
Mpro-x0678_0A
C      8.962000    0.224000   21.720000
C      9.514000   -0.264000   23.054000
C     11.032000   -0.173000   23.119000
C     11.682000   -1.118000   22.110000
C     12.927000   -1.816000   22.652000
C     13.741000   -0.986000   23.635000
C     12.914000   -0.278000   24.703000
C     11.416000   -0.500000   24.552000
C      7.089000    0.108000   20.116000
C      5.836000    0.702000   20.234000
C      5.235000    1.135000   19.057000
C      5.915000    0.958000   17.861000
C      7.728000   -0.031000   18.899000
N      7.705000   -0.329000   21.332000
N      7.114000    0.396000   17.817000
O      9.518000    1.017000   21.030000
