13
Mpro-x0387_0A
C      9.175000   -4.881000   26.525000
C     10.417000   -4.730000   25.810000
C     10.658000   -3.321000   25.258000
C      9.711000   -1.556000   24.234000
C     11.090000   -1.199000   23.661000
C     11.995000   -0.092000   24.194000
C     13.209000   -0.040000   23.431000
C     11.734000   -1.840000   22.554000
C      8.335000   -2.891000   25.312000
C      8.076000   -4.327000   25.776000
N      9.551000   -2.744000   24.533000
O      9.293000   -4.285000   27.794000
S     13.178000   -1.169000   22.273000
