20
Mpro-x0967_0A
C      7.816000    4.851000   22.607000
C      7.041000   -0.319000   20.140000
C      9.119000    0.328000   22.355000
C     10.049000   -1.857000   21.896000
C     11.430000   -1.655000   22.340000
C     12.570000   -1.700000   22.742000
C      7.367000    3.473000   22.969000
C      7.930000    1.096000   22.916000
C      6.597000    0.458000   22.493000
C      6.359000    0.521000   21.005000
C      5.478000    1.443000   20.457000
C      5.278000    1.524000   19.089000
C      5.971000    0.670000   18.248000
C      6.857000   -0.249000   18.772000
N      8.063000    2.467000   22.445000
N      9.156000   -0.975000   22.617000
O      6.390000    3.265000   23.680000
O      5.819000    0.738000   16.905000
O      9.967000    0.899000   21.676000
Br    14.264000   -2.019000   23.628000
