14
Mpro-x0161_0A
C     13.743000   -2.478000   24.319000
C     13.383000   -0.244000   23.537000
C     12.629000    1.081000   23.624000
C     11.412000    1.153000   24.286000
C     10.741000    2.366000   24.368000
C     11.295000    3.499000   23.783000
C     12.513000    3.424000   23.121000
C     13.178000    2.215000   23.046000
N      9.016000    5.073000   22.939000
O     13.261000   -1.181000   24.573000
O     14.078000   -0.459000   22.607000
O     11.317000    6.192000   23.477000
O     10.152000    5.422000   25.281000
S     10.438000    5.090000   23.884000
