14
Mpro-x0395_0A
C      9.445000   -5.456000   26.270000
C      9.207000   -4.076000   25.640000
C      9.075000   -2.099000   24.153000
C      9.144000   -1.092000   22.988000
C     10.612000    0.273000   23.808000
C     11.934000    1.173000   23.387000
C     12.959000    0.420000   22.914000
C     12.633000   -0.847000   22.129000
C     11.405000   -1.501000   22.419000
F     13.619000   -1.569000   21.576000
N      8.643000   -3.001000   26.295000
N      8.557000   -1.821000   25.406000
N     10.268000   -0.524000   22.871000
S      9.594000   -3.657000   24.098000
