43
stable:False satoms:34 tatoms:43 sratio:0.7906976744186046
C 9.655208588 2.065643311 22.474142075
C 9.046022415 1.228243709 23.493627548
H 8.076522827 1.482942224 23.914802551
N 7.371450901 -0.775910914 23.255775452
C 8.490608215 -0.675535142 23.345693588
C 9.641518593 -0.015676143 23.714612961
C 11.996908188 -0.670395374 22.465835571
C 12.170041084 0.090722889 23.732393265
H 13.077039719 0.614820063 23.328556061
H 11.348475456 -1.541152477 22.528385162
N 10.464888573 3.056515932 22.619132996
C 9.115435600 1.648838758 21.155529022
H 13.019801140 -1.093301058 22.122623444
C 8.412687302 -1.186321855 20.538461685
S 7.584829807 -1.872847080 18.403911591
C 6.566622734 -0.503140509 18.424163818
C 4.920137405 0.291175753 19.708898544
C 4.726357460 1.431463003 18.966415405
H 4.018229961 2.142900229 19.276418686
C 6.706676483 -3.192838669 20.519165039
C 5.990760803 -4.730980873 22.384778976
H 6.388853550 -5.102493286 23.344295502
H 5.838417530 -5.622372150 21.756250381
C 7.633877754 -2.083570004 20.120796204
N 6.462034702 0.446975499 17.608509064
N 6.954590321 -3.812638044 21.739446640
C 5.496019840 1.393256903 17.895277023
O 5.878755569 -3.631330252 19.771652222
H 8.956513405 -3.279822588 21.979856491
H 8.543945312 -5.066396713 22.222860336
H 12.460012436 0.162913859 24.801811218
H 5.068073750 -4.148947239 22.515022278
H 11.605828285 -0.014059368 21.638200760
C 8.222878456 -4.065978527 21.978586197
H 9.736619949 2.101985931 20.385536194
N 9.591629982 -0.208858296 19.760328293
O 10.783215523 -0.224158019 24.282119751
C 5.693868160 -0.667902589 19.649963379
H 5.378387451 2.124932766 17.105142593
N 4.361015320 -0.388315946 20.868488312
C 9.078713417 0.157563090 20.640003204
H 8.111039162 2.048066378 21.101417542
N 5.120149612 -1.269277692 20.857793808
