36
stable:False satoms:19 tatoms:36 sratio:0.5277777777777778
O 6.925780773 -5.306367397 26.283655167
C 9.814269066 -3.998300076 24.232883453
H 9.677099228 -1.695479155 22.873825073
C 10.706896782 -2.129532576 22.948307037
C 11.520951271 0.174220696 24.232297897
H 12.210650444 0.888283372 24.382251740
H 13.818765640 -0.116179012 22.767450333
C 13.326521873 -1.048698306 23.012735367
H 11.251838684 -1.775846362 22.075225830
N 8.697496414 -3.900286436 24.902318954
O 9.283164978 -6.007054806 26.111564636
O 8.631274223 -3.714583158 26.931409836
S 8.297857285 -4.986621857 26.130041122
H 13.492322922 -1.636172891 22.156078339
H 7.645013332 2.889829636 29.376348495
C 5.877429962 2.263607979 30.064407349
H 5.684212208 3.179478884 30.654787064
H 5.145918369 1.517587185 30.085662842
C 6.215434074 0.112877481 28.678003311
C 12.394229889 -0.650063038 24.006942749
H 11.073038101 -0.116224930 25.180757523
C 10.609466553 -2.795383692 24.245132446
C 11.494351387 -2.880059004 23.404443741
C 9.204848289 -1.740898490 25.776536942
C 8.575841904 -0.624124467 26.418775558
C 7.284695148 0.906677485 28.560539246
H 8.329759598 1.148927331 28.299259186
O 13.204871178 -1.658773780 24.198316574
N 10.380922318 -1.838733315 25.374467850
C 8.606032372 -2.951919794 25.826784134
O 7.633193493 -0.985581756 27.157283783
C 7.147889614 -0.090985656 27.907421112
S 10.533454895 -5.518919468 23.572725296
H 8.927424431 0.342793167 26.249000549
H 10.864020348 0.358000875 23.392501831
C 6.924139977 2.186568022 29.426149368
